
     RDKit          3D

 66 68  0  0  0  0  0  0  0  0999 V2000
    0.9630   60.2810  173.4660 C   0  0  0  0  0  0  0  0  0  0  0  0
    1.4010   59.0590  174.2550 C   0  0  0  0  0  0  0  0  0  0  0  0
    0.5090   57.8840  173.8900 C   0  0  0  0  0  0  0  0  0  0  0  0
   -0.7330   57.7990  174.4850 C   0  0  0  0  0  0  0  0  0  0  0  0
   -1.5820   56.7370  174.1940 C   0  0  0  0  0  0  0  0  0  0  0  0
   -1.1610   55.7560  173.2960 C   0  0  0  0  0  0  0  0  0  0  0  0
    0.0960   55.8380  172.7060 C   0  0  0  0  0  0  0  0  0  0  0  0
    1.2710   63.5080  165.0660 O   0  0  0  0  0  0  0  0  0  0  0  0
    2.4580   63.1960  165.8310 S   0  0  2  0  0  0  0  0  0  0  0  0
    2.0560   62.7870  167.5740 C   0  0  0  0  0  0  0  0  0  0  0  0
    1.0520   63.4960  168.2390 C   0  0  0  0  0  0  0  0  0  0  0  0
    0.7360   63.1850  169.5570 C   0  0  0  0  0  0  0  0  0  0  0  0
    1.4480   62.2020  170.2420 C   0  0  1  0  0  0  0  0  0  0  0  0
    1.0310   61.7840  171.6550 C   0  0  1  0  0  0  0  0  0  0  0  0
    0.0240   62.3420  172.5350 C   0  0  0  0  0  0  0  0  0  0  0  0
   -0.1580   61.4260  173.8700 S   0  0  0  0  0  0  0  0  0  0  0  0
   -1.0980   58.8000  175.3440 F   0  0  0  0  0  0  0  0  0  0  0  0
    0.9330   56.9150  172.9890 C   0  0  0  0  0  0  0  0  0  0  0  0
    1.5520   60.5290  172.2320 N   0  0  0  0  0  0  0  0  0  0  0  0
    2.4340   61.4650  169.5710 C   0  0  0  0  0  0  0  0  0  0  0  0
    2.7430   61.7650  168.2450 C   0  0  0  0  0  0  0  0  0  0  0  0
    3.6170   64.4500  165.8480 N   0  0  0  0  0  0  0  0  0  0  0  0
    3.2220   65.7700  166.3100 C   0  0  0  0  0  0  0  0  0  0  0  0
    2.5560   66.5740  165.1880 C   0  0  0  0  0  0  0  0  0  0  0  0
    5.0230   64.0650  165.7960 C   0  0  0  0  0  0  0  0  0  0  0  0
    5.4080   63.4480  164.4440 C   0  0  0  0  0  0  0  0  0  0  0  0
    2.9110   62.0120  165.1040 O   0  0  0  0  0  0  0  0  0  0  0  0
    0.1780   59.6846  172.9781 H   0  0  0  0  0  0  0  0  0  0  0  0
    2.4460   58.8179  174.0102 H   0  0  0  0  0  0  0  0  0  0  0  0
    1.3191   59.2652  175.3324 H   0  0  0  0  0  0  0  0  0  0  0  0
    0.9436   57.2983  174.7135 H   0  0  0  0  0  0  0  0  0  0  0  0
   -1.1696   58.3752  173.6559 H   0  0  0  0  0  0  0  0  0  0  0  0
   -1.8000   56.2297  175.1454 H   0  0  0  0  0  0  0  0  0  0  0  0
   -2.4312   57.2133  173.6822 H   0  0  0  0  0  0  0  0  0  0  0  0
   -1.1952   54.7979  173.8354 H   0  0  0  0  0  0  0  0  0  0  0  0
   -1.8454   55.8864  172.4448 H   0  0  0  0  0  0  0  0  0  0  0  0
    0.6418   54.9279  172.9956 H   0  0  0  0  0  0  0  0  0  0  0  0
   -0.1357   55.9735  171.6392 H   0  0  0  0  0  0  0  0  0  0  0  0
    0.5226   63.7047  165.6836 H   0  0  0  0  0  0  0  0  0  0  0  0
    2.8010   63.5196  167.9177 H   0  0  0  0  0  0  0  0  0  0  0  0
    1.3492   64.5550  168.2254 H   0  0  0  0  0  0  0  0  0  0  0  0
    0.1407   63.2186  167.6889 H   0  0  0  0  0  0  0  0  0  0  0  0
    0.8459   64.1143  170.1352 H   0  0  0  0  0  0  0  0  0  0  0  0
   -0.2704   62.7488  169.4738 H   0  0  0  0  0  0  0  0  0  0  0  0
    2.1153   62.9816  170.6380 H   0  0  0  0  0  0  0  0  0  0  0  0
    1.3830   62.7540  171.2740 H   0  0  0  0  0  0  0  0  0  0  0  0
    0.3291   63.3559  172.8334 H   0  0  0  0  0  0  0  0  0  0  0  0
   -0.9347   62.3705  171.9965 H   0  0  0  0  0  0  0  0  0  0  0  0
    1.8714   56.4979  173.3834 H   0  0  0  0  0  0  0  0  0  0  0  0
    0.9960   57.4559  172.0332 H   0  0  0  0  0  0  0  0  0  0  0  0
    1.3420   59.7490  171.5930 H   0  0  0  0  0  0  0  0  0  0  0  0
    3.3637   61.5783  170.1479 H   0  0  0  0  0  0  0  0  0  0  0  0
    1.9995   60.4564  169.5089 H   0  0  0  0  0  0  0  0  0  0  0  0
    2.5830   60.8433  167.6664 H   0  0  0  0  0  0  0  0  0  0  0  0
    3.7700   62.1537  168.3090 H   0  0  0  0  0  0  0  0  0  0  0  0
    2.5121   65.6609  167.1432 H   0  0  0  0  0  0  0  0  0  0  0  0
    4.1237   66.3089  166.6365 H   0  0  0  0  0  0  0  0  0  0  0  0
    1.9123   67.3510  165.6260 H   0  0  0  0  0  0  0  0  0  0  0  0
    3.3305   67.0470  164.5663 H   0  0  0  0  0  0  0  0  0  0  0  0
    1.9472   65.9011  164.5663 H   0  0  0  0  0  0  0  0  0  0  0  0
    5.6411   64.9589  165.9659 H   0  0  0  0  0  0  0  0  0  0  0  0
    5.1931   63.3056  166.5734 H   0  0  0  0  0  0  0  0  0  0  0  0
    5.9835   62.5258  164.6124 H   0  0  0  0  0  0  0  0  0  0  0  0
    4.4962   63.2126  163.8754 H   0  0  0  0  0  0  0  0  0  0  0  0
    6.0202   64.1635  163.8754 H   0  0  0  0  0  0  0  0  0  0  0  0
    3.1792   61.3110  165.7495 H   0  0  0  0  0  0  0  0  0  0  0  0
  2  1  1  0
  3  2  1  0
  4  3  1  0
  5  4  1  0
  6  5  1  0
  7  6  1  0
  9  8  1  6
 10  9  1  0
 11 10  1  0
 12 11  1  0
 13 12  1  0
 14 13  1  0
 15 14  1  0
 16 15  1  0
 16  1  1  0
 17  4  1  0
 18  7  1  0
 18  3  1  0
 19 14  1  0
 19  1  1  0
 20 13  1  0
 21 10  1  0
 21 20  1  0
 22  9  1  0
 23 22  1  0
 24 23  1  0
 25 22  1  0
 26 25  1  0
 27  9  1  0
  1 28  1  0
  2 29  1  0
  2 30  1  0
  3 31  1  0
  4 32  1  0
  5 33  1  0
  5 34  1  0
  6 35  1  0
  6 36  1  0
  7 37  1  0
  7 38  1  0
  8 39  1  0
 10 40  1  0
 11 41  1  0
 11 42  1  0
 12 43  1  0
 12 44  1  0
 13 45  1  1
 14 46  1  1
 15 47  1  0
 15 48  1  0
 18 49  1  0
 18 50  1  0
 19 51  1  0
 20 52  1  0
 20 53  1  0
 21 54  1  0
 21 55  1  0
 23 56  1  0
 23 57  1  0
 24 58  1  0
 24 59  1  0
 24 60  1  0
 25 61  1  0
 25 62  1  0
 26 63  1  0
 26 64  1  0
 26 65  1  0
 27 66  1  0
M  END
$$$$
