
     RDKit          3D

 56 57  0  0  0  0  0  0  0  0999 V2000
    6.4900   19.0420   32.8500 C   0  0  0  0  0  0  0  0  0  0  0  0
    2.3540   21.7550   31.3060 C   0  0  0  0  0  0  0  0  0  0  0  0
    5.8470   20.0310   33.6580 C   0  0  0  0  0  0  0  0  0  0  0  0
    1.4270   22.6970   31.7290 C   0  0  0  0  0  0  0  0  0  0  0  0
    4.5460   20.4980   33.3470 C   0  0  0  0  0  0  0  0  0  0  0  0
    1.2520   23.9740   31.1480 C   0  0  0  0  0  0  0  0  0  0  0  0
    3.7950   20.0060   32.2010 C   0  0  0  0  0  0  0  0  0  0  0  0
    2.0540   24.3780   30.0420 C   0  0  0  0  0  0  0  0  0  0  0  0
    4.4840   19.0210   31.4300 C   0  0  0  0  0  0  0  0  0  0  0  0
    3.0060   23.4380   29.5910 C   0  0  0  0  0  0  0  0  0  0  0  0
    5.7610   18.5620   31.7330 C   0  0  0  0  0  0  0  0  0  0  0  0
    3.1370   22.1820   30.2080 C   0  0  0  0  0  0  0  0  0  0  0  0
    7.8520   18.6100   33.2760 C   0  0  0  0  0  0  0  0  0  0  0  0
    8.2320   17.1570   32.9820 C   0  0  0  0  0  0  0  0  0  0  0  0
    3.7580   21.8140   34.4760 Br  0  0  0  0  0  0  0  0  0  0  0  0
    0.2020   24.9570   31.6810 C   0  0  2  0  0  0  0  0  0  0  0  0
    3.5920   18.3280   29.9380 Br  0  0  0  0  0  0  0  0  0  0  0  0
    2.4840   20.4930   31.9240 O   0  0  0  0  0  0  0  0  0  0  0  0
    1.9230   25.6120   29.4400 O   0  0  0  0  0  0  0  0  0  0  0  0
    9.6320   16.8450   33.4760 C   0  0  0  0  0  0  0  0  0  0  0  0
    0.9380   25.7200   32.8070 C   0  0  0  0  0  0  0  0  0  0  0  0
   10.5350   17.5640   33.0370 O   0  0  0  0  0  0  0  0  0  0  0  0
    9.8080   15.9150   34.2490 O   0  0  0  0  0  0  0  0  0  0  0  0
   -1.0650   24.2530   32.1980 C   0  0  0  0  0  0  0  0  0  0  0  0
    6.0548   18.2484   33.4751 H   0  0  0  0  0  0  0  0  0  0  0  0
    1.6106   21.3349   30.6125 H   0  0  0  0  0  0  0  0  0  0  0  0
    5.7950   19.6170   34.6758 H   0  0  0  0  0  0  0  0  0  0  0  0
    6.4693   20.9220   33.4883 H   0  0  0  0  0  0  0  0  0  0  0  0
    0.4479   22.2018   31.6515 H   0  0  0  0  0  0  0  0  0  0  0  0
    1.8554   22.9767   32.7028 H   0  0  0  0  0  0  0  0  0  0  0  0
    4.9804   21.2918   32.7215 H   0  0  0  0  0  0  0  0  0  0  0  0
    1.9974   24.3914   31.8410 H   0  0  0  0  0  0  0  0  0  0  0  0
    4.2296   20.7996   31.5755 H   0  0  0  0  0  0  0  0  0  0  0  0
    2.7976   24.7987   30.7349 H   0  0  0  0  0  0  0  0  0  0  0  0
    4.9178   19.8146   30.8038 H   0  0  0  0  0  0  0  0  0  0  0  0
    2.7753   23.2433   28.5332 H   0  0  0  0  0  0  0  0  0  0  0  0
    3.9605   23.9266   29.8362 H   0  0  0  0  0  0  0  0  0  0  0  0
    5.6721   17.4740   31.8687 H   0  0  0  0  0  0  0  0  0  0  0  0
    6.3506   18.9514   30.8900 H   0  0  0  0  0  0  0  0  0  0  0  0
    4.1821   22.1234   30.5462 H   0  0  0  0  0  0  0  0  0  0  0  0
    2.7634   21.5187   29.4140 H   0  0  0  0  0  0  0  0  0  0  0  0
    8.5819   19.2558   32.7660 H   0  0  0  0  0  0  0  0  0  0  0  0
    7.8538   18.6946   34.3727 H   0  0  0  0  0  0  0  0  0  0  0  0
    7.5169   16.4902   33.4859 H   0  0  0  0  0  0  0  0  0  0  0  0
    8.2047   17.0035   31.8931 H   0  0  0  0  0  0  0  0  0  0  0  0
   -0.1701   25.6248   30.8900 H   0  0  0  0  0  0  0  0  0  0  0  0
    1.8487   26.3124   30.1357 H   0  0  0  0  0  0  0  0  0  0  0  0
    9.7746   16.1517   32.6339 H   0  0  0  0  0  0  0  0  0  0  0  0
    0.5883   25.3574   33.7849 H   0  0  0  0  0  0  0  0  0  0  0  0
    2.0210   25.5491   32.7185 H   0  0  0  0  0  0  0  0  0  0  0  0
    0.7282   26.7962   32.7185 H   0  0  0  0  0  0  0  0  0  0  0  0
   11.0359   17.9628   33.7921 H   0  0  0  0  0  0  0  0  0  0  0  0
    9.7457   16.2440   35.1807 H   0  0  0  0  0  0  0  0  0  0  0  0
   -1.0623   24.2545   33.2980 H   0  0  0  0  0  0  0  0  0  0  0  0
   -1.9554   24.7857   31.8328 H   0  0  0  0  0  0  0  0  0  0  0  0
   -1.0829   23.2156   31.8328 H   0  0  0  0  0  0  0  0  0  0  0  0
  3  1  1  0
  4  2  1  0
  5  3  1  0
  6  4  1  0
  7  5  1  0
  8  6  1  0
  9  7  1  0
 10  8  1  0
 11  9  1  0
 11  1  1  0
 12  2  1  0
 12 10  1  0
 13  1  1  0
 14 13  1  0
 15  5  1  0
 16  6  1  0
 17  9  1  0
 18  7  1  0
 18  2  1  0
 19  8  1  0
 20 14  1  0
 21 16  1  0
 22 20  1  0
 23 20  1  0
 24 16  1  0
  1 25  1  0
  2 26  1  0
  3 27  1  0
  3 28  1  0
  4 29  1  0
  4 30  1  0
  5 31  1  0
  6 32  1  0
  7 33  1  0
  8 34  1  0
  9 35  1  0
 10 36  1  0
 10 37  1  0
 11 38  1  0
 11 39  1  0
 12 40  1  0
 12 41  1  0
 13 42  1  0
 13 43  1  0
 14 44  1  0
 14 45  1  0
 16 46  1  6
 19 47  1  0
 20 48  1  0
 21 49  1  0
 21 50  1  0
 21 51  1  0
 22 52  1  0
 23 53  1  0
 24 54  1  0
 24 55  1  0
 24 56  1  0
M  END
$$$$
