33Y
  CCTOOLS-0919241042

 56 59  0  0  0  0  0  0  0  0999 V2000
    4.5310   -1.8090   -2.3360 F   0  0  0  0  0
    4.0440   -1.3500   -1.1620 C   0  0  0  0  0
    4.7160   -0.3470   -0.4770 C   0  0  0  0  0
    5.8600    0.1640   -0.9830 F   0  0  0  0  0
    4.2180    0.1320    0.7250 C   0  0  0  0  0
    3.0520   -0.3850    1.2460 C   0  0  0  0  0
    2.8750   -1.8750   -0.6490 C   0  0  0  0  0
    2.3700   -1.3950    0.5620 C   0  0  0  0  0
    1.1210   -1.9520    1.1170 C   0  0  0  0  0
    0.9050   -3.1460    1.0480 O   0  0  0  0  0
    0.2190   -1.1370    1.6990 N   0  0  0  0  0
   -0.9480   -1.7370    2.3460 C   0  0  0  0  0
   -2.2120   -0.9560    1.9600 C   0  0  0  0  0
   -3.4490   -1.8080    2.2540 C   0  0  0  0  0
   -2.2800    0.3400    2.7690 C   0  0  0  0  0
   -2.1600   -0.6330    0.4900 C   0  0  0  0  0
   -2.9820   -1.1560   -0.5900 C   0  0  0  0  0
   -4.0270   -2.0830   -0.6600 C   0  0  0  0  0
   -4.6080   -2.3650   -1.8630 C   0  0  0  0  0
    0.4420    0.2110    1.6620 C   0  0  0  0  0
   -0.2550    0.9630    0.7510 C   0  0  0  0  0
    0.0020    2.3970    0.5820 C   0  0  0  0  0
   -0.7020    3.1060   -0.3250 O   0  0  0  0  0
   -0.3950    4.5210   -0.4380 C   0  0  0  0  0
   -0.6560    4.9860   -1.8720 C   0  0  0  0  0
   -1.2800    5.3140    0.5260 C   0  0  0  0  0
    0.8500    2.9470    1.2580 O   0  0  0  0  0
   -1.2790    0.2480   -0.0630 C   0  0  0  0  0
   -1.5080    0.3410   -1.4100 N   0  0  0  0  0
   -2.5360   -0.5170   -1.7650 C   0  0  0  0  0
   -3.1440   -0.8190   -2.9770 C   0  0  0  0  0
   -4.1690   -1.7380   -3.0220 C   0  0  0  0  0
    4.7450    0.9130    1.2530 H   0  0  0  0  0
    2.6650   -0.0110    2.1830 H   0  0  0  0  0
    2.3490   -2.6520   -1.1840 H   0  0  0  0  0
   -1.0490   -2.7730    2.0230 H   0  0  0  0  0
   -0.8200   -1.7050    3.4280 H   0  0  0  0  0
   -3.4810   -2.0480    3.3170 H   0  0  0  0  0
   -4.3460   -1.2530    1.9800 H   0  0  0  0  0
   -3.4010   -2.7300    1.6740 H   0  0  0  0  0
   -1.4000    0.9480    2.5570 H   0  0  0  0  0
   -3.1780    0.8940    2.4940 H   0  0  0  0  0
   -2.3100    0.1040    3.8330 H   0  0  0  0  0
   -4.3740   -2.5760    0.2370 H   0  0  0  0  0
   -5.4140   -3.0820   -1.9150 H   0  0  0  0  0
    1.1480    0.6730    2.3350 H   0  0  0  0  0
    0.6530    4.6860   -0.1880 H   0  0  0  0  0
   -1.7040    4.8210   -2.1220 H   0  0  0  0  0
   -0.4260    6.0480   -1.9570 H   0  0  0  0  0
   -0.0260    4.4210   -2.5580 H   0  0  0  0  0
   -2.3280    5.1480    0.2750 H   0  0  0  0  0
   -1.0940    4.9820    1.5470 H   0  0  0  0  0
   -1.0490    6.3760    0.4400 H   0  0  0  0  0
   -1.0240    0.9200   -2.0190 H   0  0  0  0  0
   -2.8110   -0.3360   -3.8840 H   0  0  0  0  0
   -4.6390   -1.9700   -3.9660 H   0  0  0  0  0
  2  7  1  0  0  0
  2  1  1  0  0  0
  3  2  2  0  0  0
  4  3  1  0  0  0
  5  6  2  0  0  0
  5  3  1  0  0  0
  5 33  1  0  0  0
  6  8  1  0  0  0
  6 34  1  0  0  0
  7 35  1  0  0  0
  8  9  1  0  0  0
  8  7  2  0  0  0
  9 10  2  0  0  0
 11 12  1  0  0  0
 11  9  1  0  0  0
 12 36  1  0  0  0
 12 37  1  0  0  0
 13 12  1  0  0  0
 13 14  1  0  0  0
 14 38  1  0  0  0
 14 39  1  0  0  0
 14 40  1  0  0  0
 15 13  1  0  0  0
 15 41  1  0  0  0
 15 42  1  0  0  0
 15 43  1  0  0  0
 16 13  1  0  0  0
 17 18  1  0  0  0
 17 16  1  0  0  0
 18 44  1  0  0  0
 19 18  2  0  0  0
 19 45  1  0  0  0
 20 11  1  0  0  0
 20 46  1  0  0  0
 21 20  2  0  0  0
 22 23  1  0  0  0
 22 21  1  0  0  0
 24 23  1  0  0  0
 24 26  1  0  0  0
 24 47  1  0  0  0
 25 24  1  0  0  0
 25 48  1  0  0  0
 25 49  1  0  0  0
 25 50  1  0  0  0
 26 51  1  0  0  0
 26 52  1  0  0  0
 26 53  1  0  0  0
 27 22  2  0  0  0
 28 21  1  0  0  0
 28 16  2  0  0  0
 29 28  1  0  0  0
 29 54  1  0  0  0
 30 29  1  0  0  0
 30 17  2  0  0  0
 31 32  2  0  0  0
 31 30  1  0  0  0
 31 55  1  0  0  0
 32 19  1  0  0  0
 32 56  1  0  0  0
M  END
$$$$
