6U3
  CCTOOLS-0919241043

 72 76  0  0  1  0  0  0  0  0999 V2000
    3.9660    3.5020    1.4900 O   0  0  0  0  0
    5.1310    4.1810    1.4470 C   0  0  0  0  0
    6.0330    3.3920    0.8360 C   0  0  0  0  0
    5.4210    2.2430    0.5100 N   0  0  0  0  0
    4.1680    2.3070    0.9060 C   0  0  0  0  0
    3.1590    1.2520    0.7380 C   0  0  0  0  0
    3.3790    0.0670    0.1530 C   0  0  0  0  0
    4.7190   -0.3300   -0.4140 C   0  0  0  0  0
    1.4950    1.3590    1.2820 S   0  0  0  0  0
    1.1350   -0.2050    0.6950 C   0  0  0  0  0
    2.2570   -0.7740    0.1120 C   0  0  0  0  0
    2.1220   -2.1360   -0.4470 C   0  0  0  0  0
    3.0750   -2.6870   -0.9670 O   0  0  0  0  0
    0.9320   -2.7580   -0.3700 N   0  0  0  0  0
    0.7860   -4.1080   -0.9200 C   0  0  0  0  0
   -0.2480   -4.0900   -2.0480 C   0  0  0  0  0
    2.1320   -4.5830   -1.4700 C   0  0  0  0  0
    0.3280   -5.0460    0.1670 C   0  0  0  0  0
   -0.4440   -5.9450   -0.0940 O   0  0  0  0  0
    0.7760   -4.8870    1.4280 N   0  0  0  0  0
   -0.1250   -2.1590    0.2030 C   0  0  0  0  0
   -1.1840   -2.7540    0.2520 O   0  0  0  0  0
   -0.0470   -0.9270    0.7270 N   0  0  0  0  0
   -1.2350   -0.3330    1.3450 C   0  0  0  0  0
   -2.0280    0.4380    0.2880 C   0  0  0  0  0
   -1.2100    1.4720   -0.2610 O   0  0  0  0  0
   -1.5150    1.7960   -1.6190 C   0  0  0  0  0
   -0.2470    2.2820   -2.3280 C   0  0  0  0  0
   -0.6000    2.7000   -3.7580 C   0  0  0  0  0
   -1.6040    3.7160   -3.7210 O   0  0  0  0  0
   -2.8290    3.3040   -3.1120 C   0  0  0  0  0
   -2.5660    2.9100   -1.6560 C   0  0  0  0  0
   -3.2510    1.0480    0.9240 C   0  0  0  0  0
   -3.2160    2.3540    1.3740 C   0  0  0  0  0
   -4.3370    2.9150    1.9580 C   0  0  0  0  0
   -5.4950    2.1710    2.0920 C   0  0  0  0  0
   -5.5350    0.8650    1.6430 C   0  0  0  0  0
   -4.4130    0.3020    1.0520 C   0  0  0  0  0
   -4.4500   -0.9830    0.6090 O   0  0  0  0  0
   -5.6760   -1.6950    0.7860 C   0  0  0  0  0
    5.3070    5.1750    1.8320 H   0  0  0  0  0
    7.0660    3.6400    0.6420 H   0  0  0  0  0
    5.3070   -0.8240    0.3590 H   0  0  0  0  0
    4.5720   -1.0120   -1.2510 H   0  0  0  0  0
    5.2450    0.5600   -0.7580 H   0  0  0  0  0
    0.0830   -3.4120   -2.8340 H   0  0  0  0  0
   -0.3570   -5.0950   -2.4570 H   0  0  0  0  0
   -1.2080   -3.7520   -1.6560 H   0  0  0  0  0
    2.8690   -4.5950   -0.6670 H   0  0  0  0  0
    2.0230   -5.5870   -1.8790 H   0  0  0  0  0
    2.4630   -3.9040   -2.2560 H   0  0  0  0  0
    1.3350   -4.1260    1.6510 H   0  0  0  0  0
    0.5390   -5.5320    2.1120 H   0  0  0  0  0
   -1.8600   -1.1230    1.7640 H   0  0  0  0  0
   -0.9300    0.3480    2.1390 H   0  0  0  0  0
   -2.3340   -0.2440   -0.5060 H   0  0  0  0  0
   -1.9010    0.9120   -2.1270 H   0  0  0  0  0
    0.1670    3.1340   -1.7900 H   0  0  0  0  0
    0.4860    1.4760   -2.3550 H   0  0  0  0  0
    0.2910    3.0870   -4.2530 H   0  0  0  0  0
   -0.9750    1.8370   -4.3070 H   0  0  0  0  0
   -3.5440    4.1260   -3.1420 H   0  0  0  0  0
   -3.2340    2.4490   -3.6530 H   0  0  0  0  0
   -3.4910    2.5530   -1.2030 H   0  0  0  0  0
   -2.1990    3.7750   -1.1050 H   0  0  0  0  0
   -2.3130    2.9360    1.2710 H   0  0  0  0  0
   -4.3080    3.9350    2.3100 H   0  0  0  0  0
   -6.3690    2.6120    2.5480 H   0  0  0  0  0
   -6.4390    0.2850    1.7480 H   0  0  0  0  0
   -5.9180   -1.7440    1.8470 H   0  0  0  0  0
   -6.4750   -1.1790    0.2540 H   0  0  0  0  0
   -5.5690   -2.7050    0.3910 H   0  0  0  0  0
  1  5  1  0  0  0
  2  1  1  0  0  0
  2  3  2  0  0  0
  2 41  1  0  0  0
  3  4  1  0  0  0
  3 42  1  0  0  0
  5  4  2  0  0  0
  5  6  1  0  0  0
  6  7  2  0  0  0
  7 11  1  0  0  0
  7  8  1  0  0  0
  8 43  1  0  0  0
  8 44  1  0  0  0
  8 45  1  0  0  0
  9  6  1  0  0  0
  9 10  1  0  0  0
 10 23  1  0  0  0
 10 11  2  0  0  0
 11 12  1  0  0  0
 12 14  1  0  0  0
 12 13  2  0  0  0
 14 15  1  0  0  0
 15 16  1  0  0  0
 15 17  1  0  0  0
 15 18  1  0  0  0
 16 46  1  0  0  0
 16 47  1  0  0  0
 16 48  1  0  0  0
 17 49  1  0  0  0
 17 50  1  0  0  0
 17 51  1  0  0  0
 18 19  2  0  0  0
 18 20  1  0  0  0
 20 52  1  0  0  0
 20 53  1  0  0  0
 21 22  2  0  0  0
 21 14  1  0  0  0
 23 21  1  0  0  0
 24 25  1  0  0  0
 24 23  1  0  0  0
 24 54  1  0  0  0
 24 55  1  0  0  0
 25 26  1  0  0  0
 25 56  1  0  0  0
 26 27  1  0  0  0
 27 28  1  0  0  0
 27 57  1  0  0  0
 28 29  1  0  0  0
 28 58  1  0  0  0
 28 59  1  0  0  0
 29 60  1  0  0  0
 29 61  1  0  0  0
 30 29  1  0  0  0
 31 30  1  0  0  0
 31 62  1  0  0  0
 31 63  1  0  0  0
 32 27  1  0  0  0
 32 31  1  0  0  0
 32 64  1  0  0  0
 32 65  1  0  0  0
 33 25  1  0  0  0
 34 33  2  0  0  0
 34 66  1  0  0  0
 35 34  1  0  0  0
 35 67  1  0  0  0
 36 35  2  0  0  0
 36 37  1  0  0  0
 36 68  1  0  0  0
 37 38  2  0  0  0
 37 69  1  0  0  0
 38 33  1  0  0  0
 38 39  1  0  0  0
 39 40  1  0  0  0
 40 70  1  0  0  0
 40 71  1  0  0  0
 40 72  1  0  0  0
M  END
$$$$
