
     RDKit          3D

 37 39  0  0  0  0  0  0  0  0999 V2000
  -27.5450  -20.1050   40.0290 C   0  0  0  0  0  0  0  0  0  0  0  0
  -26.8170  -20.3500   38.6980 C   0  0  2  0  0  0  0  0  0  0  0  0
  -25.8220  -19.1900   38.3420 C   0  0  1  0  0  0  0  0  0  0  0  0
  -25.0640  -19.4220   36.9420 C   0  0  1  0  0  0  0  0  0  0  0  0
  -23.9080  -18.3450   36.8200 C   0  0  2  0  0  0  0  0  0  0  0  0
  -22.9400  -18.4060   38.0450 C   0  0  1  0  0  0  0  0  0  0  0  0
  -23.8100  -18.1210   39.3590 C   0  0  2  0  0  0  0  0  0  0  0  0
  -22.9920  -18.0680   40.7000 C   0  0  2  0  0  0  0  0  0  0  0  0
  -23.9820  -17.8140   41.8570 C   0  0  0  0  0  0  0  0  0  0  0  0
  -24.3170  -16.6040   42.3880 C   0  0  0  0  0  0  0  0  0  0  0  0
  -25.3210  -16.4030   43.5220 C   0  0  2  0  0  0  0  0  0  0  0  0
  -26.3270  -15.2420   43.2240 C   0  0  2  0  0  0  0  0  0  0  0  0
  -27.2440  -15.5020   41.9840 C   0  0  0  0  0  0  0  0  0  0  0  0
  -28.1590  -16.7310   42.1860 C   0  0  0  0  0  0  0  0  0  0  0  0
  -29.2820  -16.8200   41.1280 C   0  0  0  0  0  0  0  0  0  0  0  0
  -30.2280  -18.0030   41.3980 C   0  0  0  0  0  0  0  0  0  0  0  0
  -29.5760  -19.3980   41.1620 C   0  0  1  0  0  0  0  0  0  0  0  0
  -27.9000  -20.6040   37.5940 C   0  0  0  0  0  0  0  0  0  0  0  0
  -24.5220  -21.3010   35.4650 C   0  0  0  0  0  0  0  0  0  0  0  0
  -22.1900  -19.7770   38.1410 C   0  0  0  0  0  0  0  0  0  0  0  0
  -21.8650  -16.9580   40.6270 C   0  0  0  0  0  0  0  0  0  0  0  0
  -24.2450  -17.2160   45.5440 C   0  0  0  0  0  0  0  0  0  0  0  0
  -26.2390  -12.7740   43.0590 C   0  0  0  0  0  0  0  0  0  0  0  0
  -30.7180  -20.4180   41.0110 C   0  0  0  0  0  0  0  0  0  0  0  0
  -31.4120  -20.5400   39.7700 C   0  0  0  0  0  0  0  0  0  0  0  0
  -32.4640  -21.4780   39.6280 C   0  0  0  0  0  0  0  0  0  0  0  0
  -32.8290  -22.3010   40.7360 C   0  0  0  0  0  0  0  0  0  0  0  0
  -32.1420  -22.1770   41.9720 C   0  0  0  0  0  0  0  0  0  0  0  0
  -31.0900  -21.2380   42.1060 C   0  0  0  0  0  0  0  0  0  0  0  0
  -27.0850  -20.5650   41.0580 O   0  0  0  0  0  0  0  0  0  0  0  0
  -26.5400  -17.9460   38.2780 O   0  0  0  0  0  0  0  0  0  0  0  0
  -24.6110  -20.7860   36.8230 O   0  0  0  0  0  0  0  0  0  0  0  0
  -24.4480  -17.0340   36.6650 O   0  0  0  0  0  0  0  0  0  0  0  0
  -24.8570  -19.1550   39.4530 O   0  0  0  0  0  0  0  0  0  0  0  0
  -24.6400  -16.0670   44.7580 O   0  0  0  0  0  0  0  0  0  0  0  0
  -25.5200  -14.0440   43.0830 O   0  0  0  0  0  0  0  0  0  0  0  0
  -28.7060  -19.3700   39.9670 O   0  0  0  0  0  0  0  0  0  0  0  0
  2  1  1  0
  3  2  1  0
  4  3  1  0
  5  4  1  0
  6  5  1  0
  7  6  1  0
  8  7  1  0
  9  8  1  0
 10  9  2  3
 11 10  1  0
 12 11  1  0
 13 12  1  0
 14 13  1  0
 15 14  1  0
 16 15  1  0
 17 16  1  0
  2 18  1  6
  6 20  1  1
  8 21  1  6
 17 24  1  6
 25 24  2  0
 26 25  1  0
 27 26  2  0
 28 27  1  0
 29 28  2  0
 29 24  1  0
 30  1  2  0
  3 31  1  6
 32 19  1  0
  4 32  1  1
  5 33  1  1
  7 34  1  1
 34  3  1  0
 11 35  1  1
 35 22  1  0
 36 23  1  0
 12 36  1  6
 37 17  1  0
 37  1  1  0
M  END
$$$$
