
     RDKit          3D

 40 44  0  0  0  0  0  0  0  0999 V2000
   54.6100   44.4910   45.8600 O   0  0  0  0  0  0  0  0  0  0  0  0
   55.1610   45.6610   46.2480 C   0  0  0  0  0  0  0  0  0  0  0  0
   56.3310   45.3850   46.8300 C   0  0  0  0  0  0  0  0  0  0  0  0
   56.5390   44.0540   46.8230 N   0  0  0  0  0  0  0  0  0  0  0  0
   55.5160   43.5040   46.2150 C   0  0  0  0  0  0  0  0  0  0  0  0
   55.2940   42.2010   46.0290 C   0  0  0  0  0  0  0  0  0  0  0  0
   56.0180   41.1390   46.4120 C   0  0  0  0  0  0  0  0  0  0  0  0
   57.3660   41.1900   47.1640 C   0  0  0  0  0  0  0  0  0  0  0  0
   53.9200   41.6420   45.2260 S   0  0  0  0  0  0  0  0  0  0  0  0
   54.2690   40.0950   45.4170 C   0  0  0  0  0  0  0  0  0  0  0  0
   55.4480   39.9630   46.0710 C   0  0  0  0  0  0  0  0  0  0  0  0
   55.9100   38.7210   46.3160 C   0  0  0  0  0  0  0  0  0  0  0  0
   56.9680   38.5420   46.9090 O   0  0  0  0  0  0  0  0  0  0  0  0
   55.2380   37.6290   45.9500 N   0  0  0  0  0  0  0  0  0  0  0  0
   55.8450   36.2730   46.2410 C   0  0  1  0  0  0  0  0  0  0  0  0
   57.2950   36.2800   46.8160 C   0  0  0  0  0  0  0  0  0  0  0  0
   54.9460   35.3500   47.1130 C   0  0  0  0  0  0  0  0  0  0  0  0
   56.1530   35.7450   44.8870 C   0  0  0  0  0  0  0  0  0  0  0  0
   55.2820   35.1440   44.2270 O   0  0  0  0  0  0  0  0  0  0  0  0
   57.4040   36.1510   44.5160 N   0  0  0  0  0  0  0  0  0  0  0  0
   54.0480   37.7880   45.2900 C   0  0  0  0  0  0  0  0  0  0  0  0
   53.4010   36.8190   44.9290 O   0  0  0  0  0  0  0  0  0  0  0  0
   53.5610   39.0200   45.0200 N   0  0  0  0  0  0  0  0  0  0  0  0
   52.2450   39.2590   44.3610 C   0  0  0  0  0  0  0  0  0  0  0  0
   52.1150   38.9260   42.8970 C   0  0  2  0  0  0  0  0  0  0  0  0
   53.0220   39.7420   42.1960 O   0  0  0  0  0  0  0  0  0  0  0  0
   53.6980   38.9660   41.1990 C   0  0  2  0  0  0  0  0  0  0  0  0
   54.8720   38.2570   41.8490 C   0  0  0  0  0  0  0  0  0  0  0  0
   55.5740   37.4340   40.7720 C   0  0  0  0  0  0  0  0  0  0  0  0
   56.0700   38.3340   39.7480 O   0  0  0  0  0  0  0  0  0  0  0  0
   55.0320   39.1090   39.0720 C   0  0  0  0  0  0  0  0  0  0  0  0
   54.2120   39.9130   40.0940 C   0  0  0  0  0  0  0  0  0  0  0  0
   50.7970   39.1640   42.4560 C   0  0  0  0  0  0  0  0  0  0  0  0
   50.5180   40.3100   41.7010 C   0  0  0  0  0  0  0  0  0  0  0  0
   49.2330   40.5750   41.2360 C   0  0  0  0  0  0  0  0  0  0  0  0
   48.1930   39.6980   41.5280 C   0  0  0  0  0  0  0  0  0  0  0  0
   48.4550   38.5470   42.2700 C   0  0  0  0  0  0  0  0  0  0  0  0
   49.7400   38.2740   42.7420 C   0  0  0  0  0  0  0  0  0  0  0  0
   50.0240   37.1510   43.5020 O   0  0  0  0  0  0  0  0  0  0  0  0
   48.8700   36.3190   43.7250 C   0  0  0  0  0  0  0  0  0  0  0  0
  2  1  1  0
  3  2  2  0
  4  3  1  0
  5  4  2  0
  5  1  1  0
  6  5  1  0
  7  6  2  0
  8  7  1  0
  9  6  1  0
 10  9  1  0
 11 10  2  0
 11  7  1  0
 12 11  1  0
 13 12  2  0
 14 12  1  0
 15 14  1  0
 15 16  1  1
 17 15  1  0
 18 15  1  0
 19 18  2  0
 20 18  1  0
 21 14  1  0
 22 21  2  0
 23 21  1  0
 23 10  1  0
 24 23  1  0
 25 24  1  1
 26 25  1  0
 27 26  1  1
 28 27  1  0
 29 28  1  0
 30 29  1  0
 31 30  1  0
 32 27  1  0
 32 31  1  0
 33 25  1  0
 34 33  2  0
 35 34  1  0
 36 35  2  0
 37 36  1  0
 38 37  2  0
 38 33  1  0
 39 38  1  0
 40 39  1  0
M  END
$$$$
