FEX
  CCTOOLS-0919241035

 75 78  0  0  0  0  0  0  0  0999 V2000
    5.0250   -1.8100    7.7770 C   0  0  0  0  0
    4.6060   -1.2730    6.5180 O   0  0  0  0  0
    3.3660   -0.6990    6.5070 C   0  0  0  0  0
    2.6080   -0.6110    7.4620 O   0  0  0  0  0
    3.0790   -0.1840    5.1150 C   0  0  0  0  0
    1.6890    0.4520    5.0050 C   0  0  0  0  0
    1.3960    0.9550    3.6320 C   0  0  0  0  0
    1.7260    2.2650    3.2850 C   0  0  0  0  0
    1.4520    2.7370    2.0010 C   0  0  0  0  0
    0.8470    1.8980    1.0650 C   0  0  0  0  0
    0.5400    0.6210    1.4480 C   0  0  0  0  0
    0.7920    0.1160    2.6950 C   0  0  0  0  0
   -0.0870   -0.2510    0.4750 N   0  0  0  0  0
    0.2710   -1.6760    0.5400 C   0  0  0  0  0
    1.7550   -1.8870    0.4450 C   0  0  0  0  0
    2.4880   -1.1950   -0.5110 C   0  0  0  0  0
    3.8660   -1.3910   -0.5990 C   0  0  0  0  0
    4.5010   -2.2780    0.2710 C   0  0  0  0  0
    3.7580   -2.9690    1.2270 C   0  0  0  0  0
    2.3800   -2.7730    1.3150 C   0  0  0  0  0
    5.9310   -2.4820    0.1790 C   0  0  0  0  0
    6.5770   -2.3460   -1.0490 C   0  0  0  0  0
    7.9550   -2.5430   -1.1380 C   0  0  0  0  0
    8.6870   -2.8760    0.0010 C   0  0  0  0  0
    8.0410   -3.0120    1.2300 C   0  0  0  0  0
    6.6630   -2.8140    1.3190 C   0  0  0  0  0
   10.0800   -3.0750   -0.0890 N   0  0  0  0  0
   10.8600   -2.3610   -1.0810 C   0  0  0  0  0
   10.7520   -3.9840    0.8170 C   0  0  0  0  0
   -0.9220    0.2620   -0.5380 C   0  0  0  0  0
   -1.2670    1.4400   -0.6610 O   0  0  0  0  0
   -1.3920   -0.7180   -1.5720 C   0  0  0  0  0
   -2.7140   -1.3490   -1.1290 C   0  0  0  0  0
   -3.2780   -2.2840   -2.1960 C   0  0  0  0  0
   -3.4170   -1.5820   -3.5440 C   0  0  0  0  0
   -2.0980   -0.9570   -3.9890 C   0  0  0  0  0
   -1.5310   -0.0190   -2.9270 C   0  0  0  0  0
    6.0710   -2.1200    7.7120 H   0  0  0  0  0
    4.3960   -2.6660    8.0360 H   0  0  0  0  0
    4.9220   -1.0400    8.5440 H   0  0  0  0  0
    3.8470    0.5560    4.8600 H   0  0  0  0  0
    3.1580   -1.0250    4.4160 H   0  0  0  0  0
    1.6050    1.2720    5.7350 H   0  0  0  0  0
    0.9280   -0.2820    5.3100 H   0  0  0  0  0
    2.1980    2.9250    4.0080 H   0  0  0  0  0
    1.7080    3.7570    1.7310 H   0  0  0  0  0
    0.6380    2.2770    0.0670 H   0  0  0  0  0
    0.5350   -0.9050    2.9680 H   0  0  0  0  0
   -0.2450   -2.1910   -0.2770 H   0  0  0  0  0
   -0.1240   -2.0780    1.4790 H   0  0  0  0  0
    2.0020   -0.5020   -1.1930 H   0  0  0  0  0
    4.4320   -0.8440   -1.3490 H   0  0  0  0  0
    4.2380   -3.6650    1.9120 H   0  0  0  0  0
    1.8080   -3.3140    2.0650 H   0  0  0  0  0
    6.0200   -2.0870   -1.9470 H   0  0  0  0  0
    8.4480   -2.4350   -2.1010 H   0  0  0  0  0
    8.6020   -3.2710    2.1250 H   0  0  0  0  0
    6.1730   -2.9250    2.2840 H   0  0  0  0  0
   11.8890   -2.2400   -0.7330 H   0  0  0  0  0
   10.4310   -1.3710   -1.2590 H   0  0  0  0  0
   10.8690   -2.9140   -2.0240 H   0  0  0  0  0
   10.9830   -4.9220    0.3050 H   0  0  0  0  0
   10.1130   -4.2020    1.6770 H   0  0  0  0  0
   11.6840   -3.5400    1.1760 H   0  0  0  0  0
   -3.4490   -0.5640   -0.9090 H   0  0  0  0  0
   -4.2540   -2.6640   -1.8750 H   0  0  0  0  0
   -4.1840   -0.8020   -3.4710 H   0  0  0  0  0
   -1.3710   -1.7510   -4.2000 H   0  0  0  0  0
   -0.5560    0.3600   -3.2550 H   0  0  0  0  0
   -0.6240   -1.4970   -1.6430 H   0  0  0  0  0
   -2.1850    0.8580   -2.8300 H   0  0  0  0  0
   -2.2490   -0.4060   -4.9250 H   0  0  0  0  0
   -3.7590   -2.2980   -4.2990 H   0  0  0  0  0
   -2.6170   -3.1530   -2.3040 H   0  0  0  0  0
   -2.5690   -1.9050   -0.1950 H   0  0  0  0  0
  1  2  1  0  0  0
  1 38  1  0  0  0
  1 39  1  0  0  0
  1 40  1  0  0  0
  2  3  1  0  0  0
  3  4  2  0  0  0
  3  5  1  0  0  0
  5  6  1  0  0  0
  5 41  1  0  0  0
  5 42  1  0  0  0
  6  7  1  0  0  0
  6 43  1  0  0  0
  6 44  1  0  0  0
  7  8  2  0  0  0
  7 12  1  0  0  0
  8  9  1  0  0  0
  8 45  1  0  0  0
  9 10  2  0  0  0
  9 46  1  0  0  0
 10 11  1  0  0  0
 10 47  1  0  0  0
 11 12  2  0  0  0
 11 13  1  0  0  0
 12 48  1  0  0  0
 13 14  1  0  0  0
 13 30  1  0  0  0
 14 15  1  0  0  0
 14 49  1  0  0  0
 14 50  1  0  0  0
 15 16  2  0  0  0
 15 20  1  0  0  0
 16 17  1  0  0  0
 16 51  1  0  0  0
 17 18  2  0  0  0
 17 52  1  0  0  0
 18 19  1  0  0  0
 18 21  1  0  0  0
 19 20  2  0  0  0
 19 53  1  0  0  0
 20 54  1  0  0  0
 21 22  2  0  0  0
 21 26  1  0  0  0
 22 23  1  0  0  0
 22 55  1  0  0  0
 23 24  2  0  0  0
 23 56  1  0  0  0
 24 25  1  0  0  0
 24 27  1  0  0  0
 25 26  2  0  0  0
 25 57  1  0  0  0
 26 58  1  0  0  0
 27 28  1  0  0  0
 27 29  1  0  0  0
 28 59  1  0  0  0
 28 60  1  0  0  0
 28 61  1  0  0  0
 29 62  1  0  0  0
 29 63  1  0  0  0
 29 64  1  0  0  0
 30 31  2  0  0  0
 30 32  1  0  0  0
 32 33  1  0  0  0
 32 37  1  0  0  0
 33 34  1  0  0  0
 33 65  1  0  0  0
 34 35  1  0  0  0
 34 66  1  0  0  0
 35 36  1  0  0  0
 35 67  1  0  0  0
 36 37  1  0  0  0
 36 68  1  0  0  0
 37 69  1  0  0  0
 70 32  1  0  0  0
 71 37  1  0  0  0
 72 36  1  0  0  0
 73 35  1  0  0  0
 74 34  1  0  0  0
 75 33  1  0  0  0
M  END
$$$$
