
     RDKit          3D

 32 35  0  0  0  0  0  0  0  0999 V2000
   44.4540   -3.4710  -11.1490 F   0  0  0  0  0  0  0  0  0  0  0  0
   43.9680   -2.4890  -11.8270 C   0  0  0  0  0  0  0  0  0  0  0  0
   44.0930   -2.5400  -13.2240 C   0  0  0  0  0  0  0  0  0  0  0  0
   44.6560   -3.5110  -13.8940 F   0  0  0  0  0  0  0  0  0  0  0  0
   43.6160   -1.5270  -13.9900 C   0  0  0  0  0  0  0  0  0  0  0  0
   42.9810   -0.5110  -13.3480 C   0  0  0  0  0  0  0  0  0  0  0  0
   43.3470   -1.4300  -11.1500 C   0  0  0  0  0  0  0  0  0  0  0  0
   42.8020   -0.4510  -11.9490 C   0  0  0  0  0  0  0  0  0  0  0  0
   42.2770    0.7670  -11.3360 C   0  0  0  0  0  0  0  0  0  0  0  0
   42.8700    1.1850  -10.3690 O   0  0  0  0  0  0  0  0  0  0  0  0
   41.3210    1.4910  -11.9840 N   0  0  0  0  0  0  0  0  0  0  0  0
   41.0470    2.7880  -11.3690 C   0  0  0  0  0  0  0  0  0  0  0  0
   41.0820    4.1320  -12.0450 C   0  0  1  0  0  0  0  0  0  0  0  0
   40.4430    5.2150  -11.1270 C   0  0  0  0  0  0  0  0  0  0  0  0
   42.6090    4.3730  -12.1280 C   0  0  0  0  0  0  0  0  0  0  0  0
   40.2920    4.0460  -13.3290 C   0  0  0  0  0  0  0  0  0  0  0  0
   40.0980    5.2130  -14.1420 C   0  0  0  0  0  0  0  0  0  0  0  0
   40.5050    6.6000  -14.0730 C   0  0  0  0  0  0  0  0  0  0  0  0
   40.1380    7.5180  -15.0530 C   0  0  0  0  0  0  0  0  0  0  0  0
   40.5890    1.0670  -13.0670 C   0  0  0  0  0  0  0  0  0  0  0  0
   39.5680    1.6400  -13.7660 C   0  0  0  0  0  0  0  0  0  0  0  0
   38.9240    0.8640  -14.8740 C   0  0  0  0  0  0  0  0  0  0  0  0
   38.5910   -0.3750  -14.3330 O   0  0  0  0  0  0  0  0  0  0  0  0
   38.1100   -1.4820  -15.1270 C   0  0  1  0  0  0  0  0  0  0  0  0
   39.2490   -2.3130  -15.7130 C   0  0  0  0  0  0  0  0  0  0  0  0
   37.2850   -2.3720  -14.2060 C   0  0  0  0  0  0  0  0  0  0  0  0
   38.3830    1.1880  -15.9310 O   0  0  0  0  0  0  0  0  0  0  0  0
   39.4390    2.9740  -13.7860 C   0  0  0  0  0  0  0  0  0  0  0  0
   39.0850    3.5020  -15.0650 N   0  0  0  0  0  0  0  0  0  0  0  0
   39.3140    4.8360  -15.2270 C   0  0  0  0  0  0  0  0  0  0  0  0
   38.9420    5.7600  -16.2620 C   0  0  0  0  0  0  0  0  0  0  0  0
   39.3630    7.0890  -16.1740 C   0  0  0  0  0  0  0  0  0  0  0  0
  2  1  1  0
  3  2  2  0
  4  3  1  0
  5  3  1  0
  6  5  2  0
  7  2  1  0
  8  7  2  0
  8  6  1  0
  9  8  1  0
 10  9  2  0
 11  9  1  0
 12 11  1  0
 13 12  1  0
 13 14  1  1
 15 13  1  0
 16 13  1  0
 17 16  1  0
 18 17  2  0
 19 18  1  0
 20 11  1  0
 21 20  2  0
 22 21  1  0
 23 22  1  0
 24 23  1  0
 24 25  1  1
 26 24  1  0
 27 22  2  0
 28 21  1  0
 28 16  2  0
 29 28  1  0
 30 29  1  0
 30 17  1  0
 31 30  2  0
 32 31  1  0
 32 19  2  0
M  END
$$$$
