S1A
  CCTOOLS-0919241045

 81 83  0  0  1  0  0  0  0  0999 V2000
   -1.5430   -0.2770   -0.4150 C   0  0  0  0  0
   -2.2250    0.2210    0.8430 C   0  0  0  0  0
   -1.6030   -0.4880    2.0500 C   0  0  0  0  0
   -1.9230    0.2670    3.3400 C   0  0  0  0  0
   -0.5830    0.8370    3.8670 C   0  0  0  0  0
    0.1030   -0.5060    4.2390 C   0  0  0  0  0
    0.5400   -1.1290    2.9220 C   0  0  0  0  0
    2.0210   -0.9130    2.6200 C   0  0  0  0  0
    2.2200   -0.7820    1.1270 C   0  0  0  0  0
    3.3960   -0.4690    0.6550 C   0  0  0  0  0
    3.6380   -0.3940   -0.8300 C   0  0  0  0  0
    3.1060    0.9240   -1.3830 C   0  0  0  0  0
    2.4620    0.7070   -2.7560 C   0  0  0  0  0
    1.8080    2.0140   -3.2080 C   0  0  0  0  0
    0.4420    1.7240   -3.8430 C   0  0  0  0  0
   -0.6670    2.2760   -2.9600 C   0  0  0  0  0
   -1.5710    1.1990   -2.3740 C   0  0  0  0  0
   -3.7140   -0.1270    0.7510 C   0  0  0  0  0
   -3.5650    1.5080    4.3500 C   0  0  0  0  0
    1.2210   -0.2820    5.2440 C   0  0  0  0  0
    2.8130   -2.1480    3.0810 C   0  0  0  0  0
    3.9530   -2.5640   -1.5100 C   0  0  0  0  0
    4.2700    2.5700   -0.2800 C   0  0  0  0  0
   -1.9700    0.1770   -3.4030 C   0  0  0  0  0
   -1.1910   -0.9470   -3.5980 C   0  0  0  0  0
   -1.5580   -1.8860   -4.5430 C   0  0  0  0  0
   -2.7040   -1.7000   -5.2940 C   0  0  0  0  0
   -3.4830   -0.5750   -5.0980 C   0  0  0  0  0
   -3.1180    0.3610   -4.1490 C   0  0  0  0  0
   -1.5680   -1.4610   -0.6370 O   0  0  0  0  0
   -2.2410   -1.7850    2.1460 O   0  0  0  0  0
   -2.8480    1.3320    3.1260 O   0  0  0  0  0
   -0.7790    1.6520    5.0190 O   0  0  0  0  0
   -0.2360   -0.6860    1.8460 O   0  0  0  0  0
    2.9990   -1.5000   -1.4730 O   0  0  0  0  0
    4.1830    1.8600   -1.5170 O   0  0  0  0  0
   -0.9540    0.5790   -1.2340 O   0  0  0  0  0
   -2.0980    1.2950    0.9220 H   0  0  0  0  0
   -2.3380   -0.4290    4.0810 H   0  0  0  0  0
   -0.0350    1.3540    3.0860 H   0  0  0  0  0
   -0.6590   -1.1550    4.7000 H   0  0  0  0  0
    0.3910   -2.2250    3.0160 H   0  0  0  0  0
    2.4150   -0.0270    3.0960 H   0  0  0  0  0
    1.3890   -0.9360    0.4560 H   0  0  0  0  0
    4.2090   -0.2530    1.3360 H   0  0  0  0  0
    4.7130   -0.4590   -1.0190 H   0  0  0  0  0
    2.3630    1.3440   -0.7060 H   0  0  0  0  0
    3.2290    0.4200   -3.4840 H   0  0  0  0  0
    1.7080   -0.0720   -2.6960 H   0  0  0  0  0
    1.6740    2.6640   -2.3390 H   0  0  0  0  0
    2.4470    2.5120   -3.9430 H   0  0  0  0  0
    0.4080    2.2450   -4.8120 H   0  0  0  0  0
    0.3570    0.6590   -4.0260 H   0  0  0  0  0
   -0.2180    2.8430   -2.1300 H   0  0  0  0  0
   -1.2670    2.9790   -3.5430 H   0  0  0  0  0
   -2.5040    1.6990   -2.0460 H   0  0  0  0  0
   -4.1470    0.3540   -0.1250 H   0  0  0  0  0
   -3.8300   -1.2070    0.6650 H   0  0  0  0  0
   -4.2260    0.2220    1.6480 H   0  0  0  0  0
   -4.2880    2.3160    4.2340 H   0  0  0  0  0
   -4.0880    0.5850    4.6000 H   0  0  0  0  0
   -2.8660    1.7580    5.1480 H   0  0  0  0  0
    0.8120    0.1640    6.1500 H   0  0  0  0  0
    1.6870   -1.2370    5.4880 H   0  0  0  0  0
    1.9670    0.3860    4.8140 H   0  0  0  0  0
    3.8720   -2.0020    2.8690 H   0  0  0  0  0
    2.6730   -2.2900    4.1530 H   0  0  0  0  0
    2.4540   -3.0290    2.5490 H   0  0  0  0  0
    3.5080   -3.4330   -1.9950 H   0  0  0  0  0
    4.8310   -2.2450   -2.0710 H   0  0  0  0  0
    4.2460   -2.8240   -0.4930 H   0  0  0  0  0
    5.0210    3.3560   -0.3640 H   0  0  0  0  0
    3.3030    3.0140   -0.0470 H   0  0  0  0  0
    4.5550    1.8800    0.5140 H   0  0  0  0  0
   -0.2960   -1.0930   -3.0110 H   0  0  0  0  0
   -0.9490   -2.7650   -4.6960 H   0  0  0  0  0
   -2.9900   -2.4330   -6.0330 H   0  0  0  0  0
   -4.3780   -0.4290   -5.6850 H   0  0  0  0  0
   -3.7270    1.2400   -3.9970 H   0  0  0  0  0
   -2.0570   -2.2500    1.3180 H   0  0  0  0  0
   -1.2070    2.4650    4.7170 H   0  0  0  0  0
  1  2  1  0  0  0
  1 30  2  0  0  0
  1 37  1  0  0  0
  2  3  1  0  0  0
  2 18  1  0  0  0
  2 38  1  0  0  0
  3  4  1  0  0  0
  3 31  1  0  0  0
  3 34  1  0  0  0
  4  5  1  0  0  0
  4 32  1  0  0  0
  4 39  1  0  0  0
  5  6  1  0  0  0
  5 33  1  0  0  0
  5 40  1  0  0  0
  6  7  1  0  0  0
  6 20  1  0  0  0
  6 41  1  0  0  0
  7  8  1  0  0  0
  7 34  1  0  0  0
  7 42  1  0  0  0
  8  9  1  0  0  0
  8 21  1  0  0  0
  8 43  1  0  0  0
  9 10  2  0  0  0
  9 44  1  0  0  0
 10 11  1  0  0  0
 10 45  1  0  0  0
 11 12  1  0  0  0
 11 35  1  0  0  0
 11 46  1  0  0  0
 12 13  1  0  0  0
 12 36  1  0  0  0
 12 47  1  0  0  0
 13 14  1  0  0  0
 13 48  1  0  0  0
 13 49  1  0  0  0
 14 15  1  0  0  0
 14 50  1  0  0  0
 14 51  1  0  0  0
 15 16  1  0  0  0
 15 52  1  0  0  0
 15 53  1  0  0  0
 16 17  1  0  0  0
 16 54  1  0  0  0
 16 55  1  0  0  0
 17 24  1  0  0  0
 17 37  1  0  0  0
 17 56  1  0  0  0
 18 57  1  0  0  0
 18 58  1  0  0  0
 18 59  1  0  0  0
 19 32  1  0  0  0
 19 60  1  0  0  0
 19 61  1  0  0  0
 19 62  1  0  0  0
 20 63  1  0  0  0
 20 64  1  0  0  0
 20 65  1  0  0  0
 21 66  1  0  0  0
 21 67  1  0  0  0
 21 68  1  0  0  0
 22 35  1  0  0  0
 22 69  1  0  0  0
 22 70  1  0  0  0
 22 71  1  0  0  0
 23 36  1  0  0  0
 23 72  1  0  0  0
 23 73  1  0  0  0
 23 74  1  0  0  0
 24 25  2  0  0  0
 24 29  1  0  0  0
 25 26  1  0  0  0
 25 75  1  0  0  0
 26 27  2  0  0  0
 26 76  1  0  0  0
 27 28  1  0  0  0
 27 77  1  0  0  0
 28 29  2  0  0  0
 28 78  1  0  0  0
 29 79  1  0  0  0
 31 80  1  0  0  0
 33 81  1  0  0  0
M  END
$$$$
