T3
  CCTOOLS-1004241121

 35 36  0  0  1  0  0  0  0  0999 V2000
   -0.0970   -0.7010    2.5240 C   0  0  0  0  0
    0.0300    1.5290   -1.6130 C   0  0  0  0  0
    1.1170   -0.2310    2.0610 C   0  0  0  0  0
    0.0220    0.1420   -1.6420 C   0  0  0  0  0
    1.1550    0.7350    1.0750 C   0  0  0  0  0
    0.0410   -0.5230   -2.8530 C   0  0  0  0  0
   -0.0270    1.2340    0.5470 C   0  0  0  0  0
    0.0780    0.1950   -4.0390 C   0  0  0  0  0
   -1.2450    0.7600    1.0130 C   0  0  0  0  0
    0.0920    1.5810   -4.0100 C   0  0  0  0  0
   -1.2770   -0.2100    1.9960 C   0  0  0  0  0
    0.0680    2.2470   -2.8000 C   0  0  0  0  0
   -0.1360   -1.7550    3.6000 C   0  0  0  0  0
   -0.1640   -1.0820    4.9730 C   0  0  0  0  0
   -0.2020   -2.1360    6.0490 C   0  0  0  0  0
    2.9970    1.4470    0.3750 I   0  0  0  0  0
    0.0200   -2.6170   -2.8970 I   0  0  0  0  0
   -3.0340    1.5080    0.2200 I   0  0  0  0  0
    1.0390   -0.2560    5.1380 N   0  0  0  0  0
    0.1020   -0.4600   -5.2300 O   0  0  0  0  0
    0.0070    2.1840   -0.4220 O   0  0  0  0  0
   -1.3810   -2.5940    6.4990 O   0  0  0  0  0
    0.8280   -2.5690    6.5070 O   0  0  0  0  0
    2.0370   -0.6190    2.4720 H   0  0  0  0  0
   -0.0060   -0.4160   -0.7190 H   0  0  0  0  0
    0.1210    2.1410   -4.9330 H   0  0  0  0  0
   -2.2250   -0.5800    2.3590 H   0  0  0  0  0
    0.0780    3.3270   -2.7770 H   0  0  0  0  0
    0.7490   -2.3860    3.5220 H   0  0  0  0  0
   -1.0290   -2.3680    3.4770 H   0  0  0  0  0
   -1.0500   -0.4510    5.0500 H   0  0  0  0  0
    1.8300   -0.8780    5.0600 H   0  0  0  0  0
    1.0780    0.3620    4.3430 H   0  0  0  0  0
    1.0330   -0.6040   -5.4510 H   0  0  0  0  0
   -1.4060   -3.2700    7.1890 H   0  0  0  0  0
  1  3  2  0  0  0
  1 11  1  0  0  0
  1 13  1  0  0  0
  2  4  2  0  0  0
  2 12  1  0  0  0
  2 21  1  0  0  0
  3  5  1  0  0  0
  3 24  1  0  0  0
  4  6  1  0  0  0
  4 25  1  0  0  0
  5  7  2  0  0  0
  5 16  1  0  0  0
  6  8  2  0  0  0
  6 17  1  0  0  0
  7  9  1  0  0  0
  7 21  1  0  0  0
  8 10  1  0  0  0
  8 20  1  0  0  0
  9 11  2  0  0  0
  9 18  1  0  0  0
 10 12  2  0  0  0
 10 26  1  0  0  0
 11 27  1  0  0  0
 12 28  1  0  0  0
 13 14  1  0  0  0
 13 29  1  0  0  0
 13 30  1  0  0  0
 14 15  1  0  0  0
 14 19  1  0  0  0
 14 31  1  0  0  0
 15 22  1  0  0  0
 15 23  2  0  0  0
 19 32  1  0  0  0
 19 33  1  0  0  0
 20 34  1  0  0  0
 22 35  1  0  0  0
M  END
$$$$
