
     RDKit          3D

 23 24  0  0  0  0  0  0  0  0999 V2000
    6.7540   20.8300   27.5330 C   0  0  0  0  0  0  0  0  0  0  0  0
    3.4700   18.0600   30.0340 C   0  0  0  0  0  0  0  0  0  0  0  0
    7.0140   20.4060   28.9320 C   0  0  0  0  0  0  0  0  0  0  0  0
    3.0840   17.1850   31.1010 C   0  0  0  0  0  0  0  0  0  0  0  0
    6.2920   19.3900   29.4820 C   0  0  0  0  0  0  0  0  0  0  0  0
    1.9570   17.4760   31.8880 C   0  0  0  0  0  0  0  0  0  0  0  0
    5.2900   18.7570   28.7180 C   0  0  0  0  0  0  0  0  0  0  0  0
    1.2190   18.5980   31.6290 C   0  0  0  0  0  0  0  0  0  0  0  0
    5.0450   19.1580   27.3620 C   0  0  0  0  0  0  0  0  0  0  0  0
    1.6140   19.4970   30.5220 C   0  0  0  0  0  0  0  0  0  0  0  0
    5.7930   20.2090   26.7870 C   0  0  0  0  0  0  0  0  0  0  0  0
    2.7070   19.2150   29.7580 C   0  0  0  0  0  0  0  0  0  0  0  0
    7.5750   21.9560   26.9160 C   0  0  0  0  0  0  0  0  0  0  0  0
    8.2510   21.6500   25.5790 C   0  0  1  0  0  0  0  0  0  0  0  0
    9.2900   22.6910   25.2040 C   0  0  0  0  0  0  0  0  0  0  0  0
    6.6770   18.7820   31.4690 I   0  0  0  0  0  0  0  0  0  0  0  0
    1.4590   16.1470   33.4570 I   0  0  0  0  0  0  0  0  0  0  0  0
    3.5680   18.1570   26.2350 I   0  0  0  0  0  0  0  0  0  0  0  0
    8.7460   20.2940   25.4590 N   0  0  0  0  0  0  0  0  0  0  0  0
    0.0790   18.8970   32.3880 O   0  0  0  0  0  0  0  0  0  0  0  0
    4.5660   17.6890   29.2450 O   0  0  0  0  0  0  0  0  0  0  0  0
   10.2350   22.3770   24.5640 O   0  0  0  0  0  0  0  0  0  0  0  0
    9.0920   24.0140   25.6110 O   0  0  0  0  0  0  0  0  0  0  0  0
  3  1  2  0
  4  2  2  0
  5  3  1  0
  6  4  1  0
  7  5  2  0
  8  6  2  0
  9  7  1  0
 10  8  1  0
 11  9  2  0
 11  1  1  0
 12 10  2  0
 12  2  1  0
 13  1  1  0
 14 13  1  0
 15 14  1  0
 16  5  1  0
 17  6  1  0
 18  9  1  0
 14 19  1  1
 20  8  1  0
 21  7  1  0
 21  2  1  0
 22 15  1  0
 23 15  2  0
M  END
$$$$
